13
geom from periodic runs (bpw91ish)
C   0.03808802300416     -0.03982637289469     -2.41856932442241
C   -1.15699614487916     -0.30121158439659     -1.77554438809756
C   1.19279856371145      0.29978631543098     -1.65678446265433
H   -2.07615810728553     -0.56723977074115     -2.31332380435055
H   2.14079301465007      0.50680045977990     -2.17215359257105
C   -1.20457938070720     -0.22265560698018     -0.33516789935262
C   1.14247156570839      0.37688982060333     -0.22916796830836
H   2.04771363394756      0.64104313922409      0.33236286401323
C   -0.04012060409162      0.11993516826500      0.43702667867237
H   -0.10317272472698      0.17292929054114      1.53338040989845
H   0.10171802311448     -0.09274327267117     -3.51279283506978
O   -2.37961312430790     -0.48478099941188      0.21339366712057
H   -2.35082278613773     -0.41558899574878      1.19696789312206
